CENÁRIO_04/Resultados 04/SE_Curr_Elem_04.Txt

CIRCUIT ELEMENT CURRENTS

(Currents into element from indicated bus)

Power Delivery Elements

  Bus     Phase    Magnitude, A     Angle      (Real)   +j  (Imag)

ELEMENT = "Vsource.SOURCE"
99            1           61.432 /_   92.1 =    -2.2597 +j     61.39
99            2           61.432 /_  -27.9 =     54.295 +j   -28.738
99            3           61.432 /_ -147.9 =    -52.035 +j   -32.652
------------
99            0           61.432 /_  -87.9 =     2.2597 +j    -61.39
99            0           61.432 /_  152.1 =    -54.295 +j    28.738
99            0           61.432 /_   32.1 =     52.035 +j    32.652

ELEMENT = "Line.TRECHO_99-1"
99            1           61.432 /_  -87.9 =     2.2597 +j    -61.39
99            2           61.432 /_  152.1 =    -54.295 +j    28.738
99            3           61.432 /_   32.1 =     52.035 +j    32.652
------------
1             1           61.432 /_   92.1 =    -2.2597 +j     61.39
1             2           61.432 /_  -27.9 =     54.295 +j   -28.738
1             3           61.432 /_ -147.9 =    -52.035 +j   -32.652

ELEMENT = "Line.TRECHO_1-2"
1             1           57.491 /_ -133.2 =     -39.39 +j   -41.877
1             2           57.491 /_  106.8 =    -16.571 +j    55.051
1             3           57.491 /_  -13.2 =     55.961 +j   -13.175
------------
2             1           57.491 /_   46.8 =      39.39 +j    41.877
2             2           57.491 /_  -73.2 =     16.571 +j   -55.051
2             3           57.491 /_  166.8 =    -55.961 +j    13.175

ELEMENT = "Line.TRECHO_2-6"
2             1           26.416 /_  -18.0 =     25.124 +j   -8.1578
2             2           26.416 /_ -138.0 =    -19.627 +j   -17.679
2             3           26.416 /_  102.0 =    -5.4973 +j    25.837
------------
6             1           26.416 /_  162.0 =    -25.124 +j    8.1578
6             2           26.416 /_   42.0 =     19.627 +j    17.679
6             3           26.416 /_  -78.0 =     5.4973 +j   -25.837

ELEMENT = "Line.TRECHO_6-7"
6             1           8.2811 /_  -25.1 =        7.5 +j   -3.5109
6             2           8.2811 /_ -145.1 =    -6.7905 +j   -4.7397
6             3           8.2811 /_   94.9 =   -0.70947 +j    8.2506
------------
7             1           8.2811 /_  154.9 =       -7.5 +j    3.5109
7             2           8.2811 /_   34.9 =     6.7905 +j    4.7397
7             3           8.2811 /_  -85.1 =    0.70947 +j   -8.2506

ELEMENT = "Line.TRECHO_1-5"
1             1             27.6 /_  -25.1 =     24.993 +j   -11.709
1             2             27.6 /_ -145.1 =    -22.637 +j    -15.79
1             3             27.6 /_   94.9 =     -2.356 +j    27.499
------------
5             1             27.6 /_  154.9 =    -24.993 +j    11.709
5             2             27.6 /_   34.9 =     22.637 +j     15.79
5             3             27.6 /_  -85.1 =      2.356 +j   -27.499

ELEMENT = "Line.TRECHO_2-3"
2             1           85.213 /_ -162.3 =    -81.175 +j    -25.92
2             2           85.213 /_   77.7 =      18.14 +j     83.26
2             3           85.213 /_  -42.3 =     63.035 +j    -57.34
------------
3             1           85.213 /_   17.7 =     81.175 +j     25.92
3             2           85.213 /_ -102.3 =     -18.14 +j    -83.26
3             3           85.213 /_  137.7 =    -63.035 +j     57.34

ELEMENT = "Line.TRECHO_3-4"
3             1           107.11 /_ -172.4 =    -106.17 +j   -14.225
3             2           107.11 /_   67.6 =     40.764 +j    99.055
3             3           107.11 /_  -52.4 =     65.402 +j    -84.83
------------
4             1           107.11 /_    7.6 =     106.17 +j    14.225
4             2           107.11 /_ -112.4 =    -40.764 +j   -99.055
4             3           107.11 /_  127.6 =    -65.402 +j     84.83

ELEMENT = "Transformer.TR1"
1             1           18.395 /_  -25.1 =     16.657 +j   -7.8041
1             2           18.395 /_ -145.1 =    -15.087 +j   -10.523
1             3           18.395 /_   94.9 =    -1.5699 +j    18.327
1             0                0 /_    0.0 =          0 +j         0
------------
BT-TR1        1           668.01 /_  124.9 =    -382.16 +j     547.9
BT-TR1        2           668.01 /_    4.9 =     665.57 +j    57.014
BT-TR1        3           668.01 /_ -115.1 =    -283.41 +j   -604.91
BT-TR1        0      1.3645E-007 /_  -58.5 =  7.1377E-008 +j -1.163E-007

ELEMENT = "Transformer.TR2"
2             1           18.396 /_  -25.1 =     16.661 +j   -7.7991
2             2           18.396 /_ -145.1 =    -15.085 +j   -10.529
2             3           18.396 /_   94.9 =    -1.5761 +j    18.328
2             0                0 /_    0.0 =          0 +j         0
------------
BT-TR2        1           668.06 /_  124.9 =    -382.37 +j    547.81
BT-TR2        2           668.06 /_    4.9 =      665.6 +j    57.238
BT-TR2        3           668.06 /_ -115.1 =    -283.23 +j   -605.05
BT-TR2        0      1.3653E-007 /_  -58.5 =  7.1432E-008 +j -1.1636E-007

ELEMENT = "Transformer.TR3"
3             1           27.592 /_  -25.1 =     24.991 +j   -11.695
3             2           27.592 /_ -145.1 =    -22.623 +j   -15.795
3             3           27.592 /_   94.9 =    -2.3675 +j     27.49
3             0                0 /_    0.0 =          0 +j         0
------------
BT-TR3        1             1002 /_  124.9 =    -573.62 +j    821.58
BT-TR3        2             1002 /_    4.9 =     998.32 +j    85.978
BT-TR3        3             1002 /_ -115.1 =     -424.7 +j   -907.56
BT-TR3        0       2.048E-007 /_  -58.4 =  1.0717E-007 +j -1.7452E-007

ELEMENT = "Transformer.TR4"
4             1            18.39 /_  -25.1 =     16.658 +j   -7.7908
4             2            18.39 /_ -145.1 =    -15.076 +j   -10.531
4             3            18.39 /_   94.9 =    -1.5822 +j    18.322
4             0                0 /_    0.0 =          0 +j         0
------------
BT-TR4        1           667.85 /_  124.9 =    -382.45 +j     547.5
BT-TR4        2           667.85 /_    4.9 =     665.38 +j    57.459
BT-TR4        3           667.85 /_ -115.1 =    -282.93 +j   -604.96
BT-TR4        0      1.3651E-007 /_  -58.4 =  7.1461E-008 +j -1.1631E-007

ELEMENT = "Transformer.TR5"
5             1             27.6 /_  -25.1 =     24.993 +j   -11.709
5             2             27.6 /_ -145.1 =    -22.637 +j    -15.79
5             3             27.6 /_   94.9 =     -2.356 +j    27.499
5             0                0 /_    0.0 =          0 +j         0
------------
BT-TR5        1           1002.3 /_  124.9 =    -573.42 +j    822.08
BT-TR5        2           1002.3 /_    4.9 =     998.65 +j    85.559
BT-TR5        3           1002.3 /_ -115.1 =    -425.23 +j   -907.64
BT-TR5        0       2.048E-007 /_  -58.5 =  1.0714E-007 +j -1.7454E-007

ELEMENT = "Transformer.TR6"
6             1           11.041 /_  -25.1 =     9.9991 +j    -4.681
6             2           11.041 /_ -145.1 =    -9.0534 +j    -6.319
6             3           11.041 /_   94.9 =    -0.9457 +j        11
6             0                0 /_    0.0 =          0 +j         0
------------
BT-TR6        1           400.95 /_  124.9 =    -229.48 +j    328.78
BT-TR6        2           400.95 /_    4.9 =     399.47 +j    34.344
BT-TR6        3           400.95 /_ -115.1 =    -169.99 +j   -363.13
BT-TR6        0      8.1957E-008 /_  -58.5 =  4.2877E-008 +j -6.9847E-008

ELEMENT = "Transformer.TR7"
7             1           8.2811 /_  -25.1 =        7.5 +j   -3.5109
7             2           8.2811 /_ -145.1 =    -6.7905 +j   -4.7397
7             3           8.2811 /_   94.9 =   -0.70947 +j    8.2506
7             0                0 /_    0.0 =          0 +j         0
------------
BT-TR7        1           300.73 /_  124.9 =    -172.13 +j     246.6
BT-TR7        2           300.73 /_    4.9 =     299.63 +j    25.765
BT-TR7        3           300.73 /_ -115.1 =     -127.5 +j   -272.37
BT-TR7        0      6.1478E-008 /_  -58.5 =  3.2166E-008 +j -5.2392E-008

ELEMENT = "Transformer.TR_AC1"
TR_ACOPL1     1           4466.6 /_    3.0 =     4460.5 +j    233.66
TR_ACOPL1     2           4466.6 /_ -117.0 =    -2027.9 +j   -3979.7
TR_ACOPL1     3           4466.6 /_  123.0 =    -2432.6 +j      3746
TR_ACOPL1     0      8.9372E-007 /_ -118.1 =  -4.2138E-007 +j -7.8815E-007
------------
4             1           122.99 /_ -177.0 =    -122.82 +j   -6.4343
4             2           122.99 /_   63.0 =      55.84 +j    109.59
4             3           122.99 /_  -57.0 =     66.984 +j   -103.15
4             0      2.4609E-008 /_   61.9 =  1.1603E-008 +j 2.1702E-008

= = = = = = = = = = = = = = = = = = =  = = = = = = = = = = =  = =

Power Conversion Elements

  Bus     Phase    Magnitude, A     Angle      (Real)   +j  (Imag)

ELEMENT = "Load.LOAD_TR1"
BT-TR1        1           667.99 /_  -55.1 =     382.13 +j   -547.89
BT-TR1        2           667.99 /_ -175.1 =    -665.55 +j   -56.991
BT-TR1        3           667.99 /_   64.9 =     283.42 +j    604.88
BT-TR1        0      1.3645E-007 /_  121.5 =  -7.1374E-008 +j 1.1629E-007

ELEMENT = "Load.LOAD_TR2"
BT-TR2        1           668.03 /_  -55.1 =     382.34 +j    -547.8
BT-TR2        2           668.03 /_ -175.1 =    -665.58 +j   -57.215
BT-TR2        3           668.03 /_   64.9 =     283.24 +j    605.02
BT-TR2        0      1.3652E-007 /_  121.5 =  -7.1426E-008 +j 1.1635E-007

ELEMENT = "Load.LOAD_TR3"
BT-TR3        1             1002 /_  -55.1 =     573.57 +j   -821.57
BT-TR3        2             1002 /_ -175.1 =    -998.28 +j   -85.944
BT-TR3        3             1002 /_   64.9 =     424.71 +j    907.51
BT-TR3        0      2.0478E-007 /_  121.6 =  -1.0716E-007 +j 1.7451E-007

ELEMENT = "Load.LOAD_TR4"
BT-TR4        1           667.83 /_  -55.1 =     382.42 +j    -547.5
BT-TR4        2           667.83 /_ -175.1 =    -665.36 +j   -57.437
BT-TR4        3           667.83 /_   64.9 =     282.94 +j    604.93
BT-TR4        0       1.365E-007 /_  121.6 =  -7.1457E-008 +j 1.163E-007

ELEMENT = "Load.LOAD_TR5"
BT-TR5        1           1002.3 /_  -55.1 =     573.38 +j   -822.07
BT-TR5        2           1002.3 /_ -175.1 =    -998.62 +j   -85.524
BT-TR5        3           1002.3 /_   64.9 =     425.24 +j    907.59
BT-TR5        0      2.0479E-007 /_  121.5 =  -1.0713E-007 +j 1.7453E-007

ELEMENT = "Load.LOAD_TR6"
BT-TR6        1           400.93 /_  -55.1 =     229.46 +j   -328.78
BT-TR6        2           400.93 /_ -175.1 =    -399.46 +j    -34.33
BT-TR6        3           400.93 /_   64.9 =        170 +j    363.11
BT-TR6        0      8.1954E-008 /_  121.5 =  -4.2876E-008 +j 6.9843E-008

ELEMENT = "Load.LOAD_TR7"
BT-TR7        1           300.72 /_  -55.1 =     172.11 +j    -246.6
BT-TR7        2           300.72 /_ -175.1 =    -299.62 +j   -25.755
BT-TR7        3           300.72 /_   64.9 =      127.5 +j    272.35
BT-TR7        0      6.1475E-008 /_  121.5 =  -3.2164E-008 +j 5.2389E-008

ELEMENT = "PVSystem.SFV_1"
TR_ACOPL1     1           4466.5 /_ -177.0 =    -4460.4 +j   -233.79
TR_ACOPL1     2           4466.5 /_   63.0 =     2027.7 +j    3979.7
TR_ACOPL1     3           4466.5 /_  -57.0 =     2432.7 +j   -3745.9
TR_ACOPL1     0      8.9374E-007 /_   61.9 =  4.2133E-007 +j 7.882E-007

ELEMENT = "Storage.SA_1"
6             1           7.6252 /_    0.3 =     7.6252 +j  0.034064
6             2           7.6252 /_ -119.7 =    -3.7831 +j   -6.6206
6             3           7.6252 /_  120.3 =    -3.8421 +j    6.5866
6             0      1.5219E-009 /_ -120.8 =  -7.8022E-010 +j -1.3067E-009

